; Filename: C:/Users/fmrsa/Desktop/Tese/1Loop/Model/BairrodaCelbi_py.inp
; WNTR: 0.3.1
; Created: 2023-02-23 15:47:14
[TITLE]
Modulo de modelacao matematica do G/InterAqua
EPANET

[JUNCTIONS]
;ID                      Elevation       Demand Pattern                 
 6959A                          28.85               0 1                          ;
 6959B                          28.85               0 1                          ;
 18284                          38.83               0 1                          ;
 6930A                          37.72               0 1                          ;
 6930B                          37.72               0 1                          ;
 18228                           36.4   0.10920852365 1                          ;
 6919A                           36.4               0 1                          ;
 6919B                           36.4               0 1                          ;
 18204                          33.65   0.12138508378 1                          ;
 6915A                           33.7               0 1                          ;
 6915B                           33.7               0 1                          ;
 18273                          38.53   0.41171993933 1                          ;
 18270                          39.76               0 1                          ;
 6946A                          38.41               0 1                          ;
 6946B                          38.41               0 1                          ;
 6944A                          38.42  0.015030441408 1                          ;
 6944B                          38.42  0.015030441408 1                          ;
 18152                           29.6               0 1                          ;
 18153                          29.52   0.36754185711 1                          ;
 18154                          29.16  0.012176560128 1                          ;
 6917A                          28.04               0 1                          ;
 6917B                          28.04               0 1                          ;
 18156                           28.9  0.027016742784 1                          ;
 18157                           28.2  0.007990867584 1                          ;
 18160                          28.25               0 1                          ;
 18339                          37.45               0 1                          ;
 18404                          39.16   0.16438356173 1                          ;
 6887A                          36.94               0 1                          ;
 6887B                          36.94               0 1                          ;
 45290                          31.74               0 1                          ;
 6877A                          31.37               0 1                          ;
 6877B                          31.37               0 1                          ;
 6871                           35.62  0.014459665152 1                          ;
 18299                          31.78   0.07800608832 1                          ;
 6883A                          28.45               0 1                          ;
 6883B                          28.45               0 1                          ;
 18323                          30.96   0.31240487078 1                          ;
 6889A                          36.94   0.12100456627 1                          ;
 6889B                          36.94   0.12100456627 1                          ;
 18399                           38.9               0 1                          ;
 6898A                           37.6   0.28843226803 1                          ;
 6898B                           37.6   0.28843226803 1                          ;
 6895A                          27.45   0.23801369875 1                          ;
 6895B                          27.45   0.23801369875 1                          ;
 18356                          39.98  0.047945205504 1                          ;
 6934A                          38.88               0 1                          ;
 6934B                          38.88               0 1                          ;
 18205                          34.54               0 1                          ;
 18232                          37.11               0 1                          ;
 6932A                          37.71   0.11339421619 1                          ;
 6932B                          37.71   0.11339421619 1                          ;
 6938A                          36.89    0.1617199392 1                          ;
 6938B                          36.89    0.1617199392 1                          ;
 43751                          39.89               0 1                          ;
 6942A                          38.48               0 1                          ;
 6942B                          38.48               0 1                          ;
 18283                          39.91               0 1                          ;
 18194                          34.84   0.20509893466 1                          ;
 6951A                          33.94  0.021308980224 1                          ;
 6951B                          33.94  0.021308980224 1                          ;
 6953A                          28.29     0.166476408 1                          ;
 6953B                          28.29     0.166476408 1                          ;
 6955A                           28.4   0.10654490112 1                          ;
 6955B                           28.4   0.10654490112 1                          ;
 18144                          29.41               0 1                          ;
 6972A                          28.04               0 1                          ;
 6972B                          28.04               0 1                          ;
 7083A                          38.91   0.08656773216 1                          ;
 7083B                          38.91   0.08656773216 1                          ;
 8002A                          39.21               0 1                          ;
 8002B                          39.21               0 1                          ;
 18297                          40.02               0 1                          ;
 18272                          38.52               0 1                          ;
 6940A                          37.01   0.15087519034 1                          ;
 6940B                          37.01   0.15087519034 1                          ;
 18265                          39.21               0 1                          ;
 43417A                         39.16  0.043949771712 1                          ;
 43417B                         39.16  0.043949771712 1                          ;
 234451                         33.99   0.14649923904 1                          ;
 43420                           38.8   0.39775494693 1                          ;
 43429                          31.45  0.039193302912 1                          ;
 43436A                          36.5    0.0665905632 1                          ;
 43436B                          36.5    0.0665905632 1                          ;
 43449A                          36.5   0.08847031968 1                          ;
 43449B                          36.5   0.08847031968 1                          ;
 43452                           38.7               0 1                          ;
 43735                          39.29   0.14802130906 1                          ;
 43740A                         39.23  0.005517503808 1                          ;
 43740B                         39.23  0.005517503808 1                          ;
 18278                          39.88               0 1                          ;
 43744A                         38.43               0 1                          ;
 43744B                         38.43               0 1                          ;
 43756                          39.98               0 1                          ;
 44882                          35.07               0 1                          ;
 44894A                         34.97               0 1                          ;
 44894B                         34.97               0 1                          ;
 44890                          32.93               0 1                          ;
 6870                           31.85               0 1                          ;
 45561                          39.69               0 1                          ;
 224896                          40.7  0.070015220736 1                          ;
 224898A                        38.89               0 1                          ;
 224898B                        38.89               0 1                          ;
 224901A                        38.89               0 1                          ;
 224901B                        38.89               0 1                          ;
 224904                         39.98   0.14764079155 1                          ;
 224907                         39.88               0 1                          ;
 224910                          39.5               0 1                          ;
 230669A                        38.87               0 1                          ;
 230669B                        38.87               0 1                          ;
 230675                         30.84   0.16971080678 1                          ;
 230681A                        30.84   0.00285388128 1                          ;
 230681B                        30.84   0.00285388128 1                          ;
 230679                         31.02   0.17313546432 1                          ;
 18170                           31.2   0.44101978714 1                          ;
 234454                          32.2   0.04185692544 1                          ;
 234457A                        30.27   0.18759512947 1                          ;
 234457B                        30.27   0.18759512947 1                          ;
 234460A                        30.75  0.010083713856 1                          ;
 234460B                        30.75  0.010083713856 1                          ;
 234493                          30.2  0.010654490112 1                          ;
 234490                         28.01  0.039193302912 1                          ;
 234498A                         30.2               0 1                          ;
 234498B                         30.2               0 1                          ;
 234497                            30   0.04185692544 1                          ;
 6881A                          28.17               0 1                          ;
 6881B                          28.17               0 1                          ;
 261236                         29.96               0 1                          ;
 270888A                        36.93               0 1                          ;
 270888B                        36.93               0 1                          ;
 329300                         32.81   0.27968036544 1                          ;
 372321                         32.95               0 1                          ;
 347716                          38.9               0 1                          ;
 358588A                        36.23               0 1                          ;
 358588B                        36.23               0 1                          ;
 6911A                          27.85    0.1284246576 1                          ;
 6911B                          27.85    0.1284246576 1                          ;
 6913A                          27.89   0.16723744301 1                          ;
 6913B                          27.89   0.16723744301 1                          ;
 230672A                        28.85  0.048706240512 1                          ;
 230672B                        28.85  0.048706240512 1                          ;
 6957A                          28.85  0.046803652992 1                          ;
 6957B                          28.85  0.046803652992 1                          ;
 347737A                        38.88  0.016552511424 1                          ;
 347737B                        38.88  0.016552511424 1                          ;
 347715                          40.1  0.078386605824 1                          ;
 18193                          31.79  0.024353120256 1                          ;
 288705                         36.89               0 1                          ;
 10301A                          31.6               0 1                          ;
 10301B                          31.6               0 1                          ;
 2                               40.7               0 1                          ;

[RESERVOIRS]
;ID                                   Head                  Pattern
 1                                 58                            ;

[TANKS]
;ID                              Elevation           Init Level            Min Level            Max Level             Diameter           Min Volume Volume Curve         Overflow            

[PIPES]
;ID                   Node1                Node2                              Length             Diameter            Roughness           Minor Loss               Status
 6832                 18284                6930A                            3.8              60             130               0                 Open   ;
 6833                 18228                6919A                            1.1              50             150               0                 Open   ;
 6834                 18204                18228                           44.6              60             130               0                 Open   ;
 6836                 18204                6915A                            2.5              50             150               0                 Open   ;
 6837                 18273                18284                           41.7             125             130               0                 Open   ;
 6841                 18270                6946A                              2              90             150               0                 Open   ;
 6844                 18270                6944A                            2.4             125             150               0                 Open   ;
 6849                 18152                18153                            7.8              80             130               0                 Open   ;
 6850                 18153                18154                           61.2              80             130               0                 Open   ;
 6851                 18154                6917A                            2.7              80             130               0                 Open   ;
 6852                 18156                18157                            8.7              80             130               0                 Open   ;
 6853                 18157                18160                           80.1              80             130               0                 Open   ;
 6862                 18339                18404                           45.1             125             150               0                 Open   ;
 6864                 18339                6887A                            3.9             125             150               0                 Open   ;
 6868                 45290                6877A                            6.2              90             150               0                 Open   ;
 6869                 45290                6871                            56.6              90             150               0                 Open   ;
 6873                 18299                6883A                           48.8              90             150               0                 Open   ;
 6876                 18323                6877B                            2.1              90             150               0                 Open   ;
 6886                 18323                6887B                           96.8             125             130               0                 Open   ;
 6888                 18339                6889A                            4.1              90             150               0                 Open   ;
 6892                 18399                18404                            5.1             125             150               0                 Open   ;
 6893                 18399                6898A                            3.7              90             150               0                 Open   ;
 6894                 18160                6895A                            2.8              90             150               0                 Open   ;
 6897                 6895B                6898B                          294.2              90             150               0                 Open   ;
 6905                 18356                6934A                            3.3             125             150               0                 Open   ;
 6914                 18205                6915B                             63              50             150               0                 Open   ;
 6916                 18156                6917B                           32.7              80             130               0                 Open   ;
 6918                 18232                6919B                           51.6              50             150               0                 Open   ;
 6929                 18228                6930B                           67.7             125             130               0                 Open   ;
 6931                 18284                6932A                            3.8              60             130               0                 Open   ;
 6935                 18273                6938A                            3.8              60             130               0                 Open   ;
 6941                 43751                6942A                            3.3             125             150               0                 Open   ;
 6945                 18283                6946B                           48.2              90             150               0                 Open   ;
 6950                 18194                6951A                            2.8              63             150               0                 Open   ;
 6952                 18153                6953A                            2.5              60             130               0                 Open   ;
 6954                 18152                6955A                            2.9              60             130               0                 Open   ;
 6958                 18144                6959B                            2.3              50             130               0                 Open   ;
 6960                 18154                6972A                            2.7             100             130               0                 Open   ;
 8001                 18283                8002A                            2.1              90             150               0                 Open   ;
 10292                18297                7083B                            1.4             200             130               0                 Open   ;
 19759                18272                6940A                            3.5              60             130               0                 Open   ;
 19765                6938B                6953B                          192.8              60             130               0                 Open   ;
 19767                6940B                6955B                          193.2              60             130               0                 Open   ;
 43418                18265                43417A                           1.7              50             150               0                 Open   ;
 43419                234451               43417B                         111.7              50             150               0                 Open   ;
 43421                18265                43420                            6.2              90             150               0                 Open   ;
 43439                43429                43436A                          98.4              90             150               0                 Open   ;
 43451                43420                43449A                          66.9              90             150               0                 Open   ;
 43453                43452                43436B                           2.9              90             150               0                 Open   ;
 43454                43452                43449B                           2.4              90             150               0                 Open   ;
 43736                43735                6944B                            9.4             125             150               0                 Open   ;
 43737                18194                43735                           94.2              80             130               0                 Open   ;
 43741                18283                43740A                           3.1              90             150               0                 Open   ;
 43742                18265                43740B                          12.2              90             150               0                 Open   ;
 43745                18278                43744A                           5.5             125             150               0                 Open   ;
 43746                18270                43744B                           2.3             125             150               0                 Open   ;
 43752                18278                43751                            4.2             125             150               0                 Open   ;
 43758                18297                43756                            1.2             200             130               0                 Open   ;
 44884                18299                44882                             53              90             150               0                 Open   ;
 44895                44882                44894A                           1.2              50             150               0                 Open   ;
 44896                44890                44894B                          18.7              50             150               0                 Open   ;
 45292                45290                6870                             1.9              90             150               0                 Open   ;
 45564                18272                45561                           37.9             125             130               0                 Open   ;
 45565                45561                6942B                              6             125             150               0                 Open   ;
 224897               18356                224896                          56.4             125             150               0                 Open   ;
 224899               18356                224898A                          3.7             125             150               0                 Open   ;
 224902               18356                224901A                          3.7             125             150               0                 Open   ;
 224905               224904               224898B                          3.1             125             150               0                 Open   ;
 224906               224904               6932B                           74.9             125             130               0                 Open   ;
 224908               224907               224901B                          7.8             125             150               0                 Open   ;
 224911               224910               6934B                            3.9             125             150               0                 Open   ;
 230670               43751                230669A                         20.9             160             150               0                 Open   ;
 230671               43756                230669B                          1.2             160             150               0                 Open   ;
 230676               18194                230675                          28.8              80             130               0                 Open   ;
 230682               230675               230681A                          1.6              90             150               0                 Open   ;
 230683               230679               230681B                         43.4              90             150               0                 Open   ;
 234455               18170                234454                          12.5              63             150               0                 Open   ;
 234456               234454               6951B                           59.1              63             150               0                 Open   ;
 234458               43420                234457A                        103.1              90             150               0                 Open   ;
 234459               43429                234457B                          2.8              90             150               0                 Open   ;
 234461               43429                234460A                         36.4              90             150               0                 Open   ;
 234462               234454               234460B                          2.1              90             150               0                 Open   ;
 234494               234493               234490                          37.7              50             150               0                 Open   ;
 234495               18170                234493                          30.6              50             150               0                 Open   ;
 234499               234493               234498A                          1.8              50             150               0                 Open   ;
 234500               234497               234498B                         18.7              50             150               0                 Open   ;
 261237               18323                261236                          22.9             125             130               0                 Open   ;
 261238               261236               6881B                            7.6             125             150               0                 Open   ;
 270889               18273                270888A                          3.4             125             130               0                 Open   ;
 270890               18272                270888B                          1.7             125             130               0                 Open   ;
 329299               329300               372321                          30.3              50             150               0                 Open   ;
 329305               329300               6889B                          136.6              90             150               0                 Open   ;
 347717               224907               347716                          50.8             125             150               0                 Open   ;
 347718               18399                347716                           1.1             125             150               0                 Open   ;
 358590               8002B                358588A                         66.7              90             150               0                 Open   ;
 366911               43452                358588B                           39              90             150               0                 Open   ;
 366931               224910               6911A                          276.5              60             130               0                 Open   ;
 366934               18157                6911B                            2.4              60             130               0                 Open   ;
 366939               18204                6913A                             90              60             130               0                 Open   ;
 366940               18156                6913B                            2.1              60             130               0                 Open   ;
 366941               230675               230672A                         73.1              80             130               0                 Open   ;
 366942               18144                230672B                            1              80             130               0                 Open   ;
 366943               18144                6957A                            1.3              80             130               0                 Open   ;
 366944               18152                6957B                           95.5              80             130               0                 Open   ;
 366949               347716               347737A                          1.6              50             150               0                 Open   ;
 366950               347715               347737B                         51.9              50             150               0                 Open   ;
 366992               18193                288705                          13.2              90             150               0                 Open   ;
 366993               18193                329300                          44.9              90             150               0                 Open   ;
 367265               44882                10301A                          95.7              90             150               0                 Open   ;